gem5 Simulator System.  https://www.gem5.org
gem5 is copyrighted software; use the --copyright option for details.

gem5 version 22.0.0.2
gem5 compiled Sep 11 2022 23:43:21
gem5 started Sep 11 2022 23:58:53
gem5 executing on shivaani-VirtualBox, pid 25049
command line: ./build/NULL/gem5.opt configs/example/garnet_synth_traffic.py --num-cpus=16 --num-dirs=16 --topology=Mesh_XY --sim-cycles=1000 --synthetic=uniform_random --injectionrate=0.1

